Circuit: * Z:\home\orlando\workspace\git\PiezoSaurus\Simulations\Piezo_amplifierV2.0.asc

WARNING: Less than two connections to node N005.  This node is used by V:U3:OX.
Direct Newton iteration failed to find .op point.  (Use ".option noopiter" to skip.)
Starting Gmin stepping
Gmin = 10
Gmin = 1.07374
Gmin = 0.115292
Gmin = 0.0123794
Gmin = 0.00132923
Gmin = 0.000142725
Gmin = 1.5325e-005
Gmin = 1.6455e-006
Gmin = 1.76685e-007
Gmin = 1.89714e-008
Gmin = 2.03704e-009
Gmin = 2.18725e-010
Gmin = 2.34854e-011
Gmin = 2.52173e-012
Gmin = 0
Gmin stepping succeeded in finding the operating point.


Date: Fri Feb 21 00:07:42 2020
Total elapsed time: 1.966 seconds.

tnom = 27
temp = 27
method = trap
totiter = 15878
traniter = 15471
tranpoints = 4366
accept = 3454
rejected = 912
matrix size = 345
fillins = 651
solver = Alternate
Thread vector: 42.3/24.1[8] 21.9/9.6[8] 6.8/4.0[6] 9.0/6.1[7]  2592/500
Matrix Compiler1: 63.27 KB object code size  43.2/29.1/[28.0]
Matrix Compiler2: 44.66 KB object code size  11.0/11.3/[7.4]

