Circuit: * Z:\home\orlando\workspace\git\PiezoSaurus\Simulations\Piezo_amplifierV2.0.asc

WARNING: Less than two connections to node N005.  This node is used by V:U3:OX.
Direct Newton iteration failed to find .op point.  (Use ".option noopiter" to skip.)
Starting Gmin stepping
Gmin = 10
Gmin = 1.07374
Gmin = 0.115292
Gmin = 0.0123794
Gmin = 0.00132923
vernier = 0.5
Gmin = 0.000223007
vernier = 0.25
vernier = 0.333333
Gmin = 0.000124738
vernier = 0.166667
vernier = 0.0833333
vernier = 0.0416667
vernier = 0.0208333
vernier = 0.0104167
vernier = 0.00520833
Gmin = 0.000134431
vernier = 0.00694444
vernier = 0.00925925
Gmin = 0.000131948
vernier = 0.0123457
vernier = 0.00617283
vernier = 0.00308642
vernier = 0.00154321
Gmin = 0.00012983
vernier = 0.000771604
vernier = 0.000578703
vernier = 0.000434027
vernier = 0.000578703
Gmin = 0.000129722
vernier = 0.000771604
Gmin = 0.000129497
vernier = 0.0010288
vernier = 0.00137174
Gmin = 0.00012912
vernier = 0.00182899
vernier = 0.00243865
Gmin = 0.000128521
vernier = 0.00325153
Gmin = 0.000127585
vernier = 0.00433537
vernier = 0.00578049
Gmin = 0.000126028
vernier = 0.00770732
vernier = 0.0102764
Gmin = 0.000123586
vernier = 0.0137019
Gmin = 0.00011984
vernier = 0.0182692
vernier = 0.0243589
Gmin = 0.00011381
vernier = 0.0324785
vernier = 0.0433047
Gmin = 0.000104829
vernier = 0.0577396
Gmin = 9.21361e-005
vernier = 0.0769861
vernier = 0.102648
Gmin = 7.4257e-005
vernier = 0.136864
vernier = 0.182485
Gmin = 5.27609e-005
vernier = 0.243314
Gmin = 3.09702e-005
vernier = 0.324418
vernier = 0.432558
Gmin = 1.28635e-005
vernier = 0.576744
vernier = 0.768991
Gmin = 3.28441e-006
vernier = 1
Gmin = 4.2612e-007
Gmin = 4.57543e-008
Gmin = 4.91283e-009
Gmin = 5.27511e-010
Gmin = 5.6641e-011
Gmin = 6.08179e-012
Gmin = 6.53027e-013
Gmin = 0
Gmin stepping succeeded in finding the operating point.


Date: Tue Feb 25 22:40:26 2020
Total elapsed time: 1.655 seconds.

tnom = 27
temp = 27
method = trap
totiter = 2573
traniter = 0
tranpoints = 0
accept = 0
rejected = 0
matrix size = 345
fillins = 853
solver = Alternate
Matrix Compiler1:    3310 opcodes
Matrix Compiler2: 49.19 KB object code size  12.4/10.9/[8.2]

